*Heading
** Job name: Plate2hole Model name: Model-1
** Generated by: Abaqus/CAE 2017
*Preprint, echo=NO, model=NO, history=NO, contact=NO
**
** PARTS
**
*Part, name=Plate
*Node
      1,  0.200000003,         -0.5
      2,  0.200000003, -0.100000001
      3,           0., -0.100000001
      4,           0.,         -0.5
      5,          0.5, -0.100000001
      6,          0.5,         -0.5
      7,          0.5,  0.100000001
      8,  0.200000003,  0.100000001
      9,  0.200000003,          0.5
     10,          0.5,          0.5
     11,           0.,          0.5
     12,           0.,  0.100000001
     13, 0.0646446645, -0.0353553407
     14,  0.135355338, -0.0353553407
     15,  0.135355338, 0.0353553407
     16, 0.0646446645, 0.0353553407
     17,  0.100000001, 0.0500000007
     18,  0.200000003, -0.461278379
     19,  0.200000003, -0.422278106
     20,  0.200000003, -0.382997125
** ... 388 like lines cut
*Element, type=CPS4R
 1,   1,  18, 151,  43
 2,  18,  19, 152, 151
 3,  19,  20, 153, 152
 4,  20,  21, 154, 153
 5,  21,  22, 155, 154
 6,  22,  23, 156, 155
 7,  23,  24, 157, 156
 8,  24,  25, 158, 157
 9,  25,  26, 159, 158
10,  26,   2,  27, 159
11,  43, 151, 160,  42
12, 151, 152, 161, 160
13, 152, 153, 162, 161
14, 153, 154, 163, 162
15, 154, 155, 164, 163
16, 155, 156, 165, 164
17, 156, 157, 166, 165
18, 157, 158, 167, 166
19, 158, 159, 168, 167
20, 159,  27,  28, 168
** ... 340 like lines cut
*Nset, nset=Plate, generate
   1,  408,    1
*Elset, elset=Plate, generate
   1,  360,    1
** Section: Plate section
*Solid Section, elset=Plate, material=Test
,
*End Part
**  
**
** ASSEMBLY
**
*Assembly, name=Assembly
**  
*Instance, name=Plate-1, part=Plate
*End Instance
**  
*Nset, nset=Bottom, instance=Plate-1
  1,  4,  6, 40, 41, 42, 43, 51, 52, 53, 54, 55, 56, 57
*Elset, elset=Bottom, instance=Plate-1
   1,  11,  21,  31,  41, 123, 124, 125, 126, 127, 128, 129, 130
*Nset, nset=Left, instance=Plate-1
   3,   4,  11,  12,  31,  32,  33,  34,  35,  36,  37,  38,  39, 111, 112, 113
 114, 115, 116, 117, 118, 119, 140, 141, 142, 143
*Elset, elset=Left, instance=Plate-1
  41,  42,  43,  44,  45,  46,  47,  48,  49,  50, 291, 292, 293, 294, 295, 296
 297, 298, 299, 300, 333, 336, 339, 342, 345
*Nset, nset=Top, instance=Plate-1
   9,  10,  11, 100, 101, 102, 103, 104, 105, 106, 107, 108, 109, 110
*Elset, elset=Top, instance=Plate-1
 171, 181, 191, 201, 211, 221, 231, 241, 260, 270, 280, 290, 300
*End Assembly
** 
** MATERIALS
** 
*Material, name=Test
*Density
1.,
*Elastic
1.,0.
** ----------------------------------------------------------------
** 
** STEP: Step-1
** 
*Step, name=Step-1, nlgeom=YES
*Dynamic, Explicit
, 20.
*Bulk Viscosity
0.06, 1.2
** 
** BOUNDARY CONDITIONS
** 
** Name: Bottom Type: Velocity/Angular velocity
*Boundary, type=VELOCITY
Bottom, 2, 2, -0.01
** Name: Symmetry Type: Symmetry/Antisymmetry/Encastre
*Boundary
Left, XSYMM
** Name: Top Type: Velocity/Angular velocity
*Boundary, type=VELOCITY
Top, 2, 2, 0.01
** 
** OUTPUT REQUESTS
** 
*Restart, write, number interval=1, time marks=NO
** 
** FIELD OUTPUT: F-Output-1
** 
*Output, field, variable=PRESELECT
** 
** HISTORY OUTPUT: H-Output-1
** 
*Output, history, variable=PRESELECT
*End Step
