*Heading
** Job name: Platewithahole Model name: Model-1
** Generated by: Abaqus/CAE 2017
*Preprint, echo=NO, model=NO, history=NO, contact=NO
**
** PARTS
**
*Part, name=Plate
*Node
      1,          0.5,         -0.5
      2, 0.0353553407, -0.0353553407
      3,           0., -0.0500000007
      4,           0.,         -0.5
      5,          0.5,          0.5
      6, 0.0353553407, 0.0353553407
      7,           0.,          0.5
      8,           0., 0.0500000007
      9,  0.445753396, -0.445753396
     10,    0.3971304,   -0.3971304
     11,   0.35354808,  -0.35354808
     12,  0.314483821, -0.314483821
     13,  0.279469281, -0.279469281
     14,  0.248084635, -0.248084635
     15,  0.219953567, -0.219953567
     16,  0.194738775, -0.194738775
     17,  0.172137961, -0.172137961
     18,  0.151880115, -0.151880115
     19,  0.133722365, -0.133722365
     20,  0.117446996, -0.117446996
** ... 652 like lines cut
*Element, type=CPS4R
  1,   1,   9, 141,  60
  2,   9,  10, 142, 141
  3,  10,  11, 143, 142
  4,  11,  12, 144, 143
  5,  12,  13, 145, 144
  6,  13,  14, 146, 145
  7,  14,  15, 147, 146
  8,  15,  16, 148, 147
  9,  16,  17, 149, 148
 10,  17,  18, 150, 149
 11,  18,  19, 151, 150
 12,  19,  20, 152, 151
 13,  20,  21, 153, 152
 14,  21,  22, 154, 153
 15,  22,  23, 155, 154
 16,  23,  24, 156, 155
 17,  24,  25, 157, 156
 18,  25,  26, 158, 157
 19,  26,  27, 159, 158
 20,  27,   2,  28, 159
** ... 600 like lines cut
*Nset, nset=Set-1, generate
   1,  672,    1
*Elset, elset=Set-1, generate
   1,  620,    1
** Section: Plate section
*Solid Section, elset=Set-1, material=Test
,
*End Part
**  
**
** ASSEMBLY
**
*Assembly, name=Assembly
**  
*Instance, name=Plate-1, part=Plate
*End Instance
**  
*Nset, nset=Bottom, instance=Plate-1
  1,  4, 54, 55, 56, 57, 58, 59, 60
*Elset, elset=Bottom, instance=Plate-1, generate
   1,  141,   20
*Nset, nset=Left, instance=Plate-1
   3,   4,   7,   8,  35,  36,  37,  38,  39,  40,  41,  42,  43,  44,  45,  46
  47,  48,  49,  50,  51,  52,  53, 115, 116, 117, 118, 119, 120, 121, 122, 123
 124, 125, 126, 127, 128, 129, 130, 131, 132, 133
*Elset, elset=Left, instance=Plate-1
 141, 142, 143, 144, 145, 146, 147, 148, 149, 150, 151, 152, 153, 154, 155, 156
 157, 158, 159, 160, 601, 602, 603, 604, 605, 606, 607, 608, 609, 610, 611, 612
 613, 614, 615, 616, 617, 618, 619, 620
*Nset, nset=Top, instance=Plate-1
   5,   7, 108, 109, 110, 111, 112, 113, 114
*Elset, elset=Top, instance=Plate-1, generate
 480,  620,   20
*End Assembly
** 
** MATERIALS
** 
*Material, name=Test
*Density
1.,
*Elastic
1.,0.
** ----------------------------------------------------------------
** 
** STEP: Step-1
** 
*Step, name=Step-1, nlgeom=YES
*Dynamic, Explicit
, 20.
*Bulk Viscosity
0.06, 1.2
** 
** BOUNDARY CONDITIONS
** 
** Name: Bottom Type: Velocity/Angular velocity
*Boundary, type=VELOCITY
Bottom, 2, 2, -0.005
** Name: Left Type: Displacement/Rotation
*Boundary
Left, 1, 1
** Name: Top Type: Velocity/Angular velocity
*Boundary, type=VELOCITY
Top, 2, 2, 0.005
** 
** OUTPUT REQUESTS
** 
*Restart, write, number interval=1, time marks=NO
** 
** FIELD OUTPUT: F-Output-1
** 
*Output, field, variable=PRESELECT
** 
** HISTORY OUTPUT: H-Output-1
** 
*Output, history, variable=PRESELECT
*End Step
