*Heading
** Job name: Rectangle_fine Model name: Model-1
** Generated by: Abaqus/CAE 2017
*Preprint, echo=NO, model=NO, history=NO, contact=NO
**
** PARTS
**
*Part, name=Part-1
*Node
      1,           0.,           0.
      2,  0.243902445,           0.
      3,   0.48780489,           0.
      4,  0.731707335,           0.
      5,  0.975609779,           0.
      6,   1.21951222,           0.
      7,   1.46341467,           0.
      8,   1.70731711,           0.
      9,   1.95121956,           0.
     10,     2.195122,           0.
     11,   2.43902445,           0.
     12,   2.68292689,           0.
     13,   2.92682934,           0.
     14,   3.17073178,           0.
     15,   3.41463423,           0.
     16,   3.65853667,           0.
     17,   3.90243912,           0.
     18,   4.14634132,           0.
     19,   4.39024401,           0.
     20,   4.63414621,           0.
** ... 190 like lines cut
*Element, type=CPS4R
  1,   1,   2,  44,  43
  2,   2,   3,  45,  44
  3,   3,   4,  46,  45
  4,   4,   5,  47,  46
  5,   5,   6,  48,  47
  6,   6,   7,  49,  48
  7,   7,   8,  50,  49
  8,   8,   9,  51,  50
  9,   9,  10,  52,  51
 10,  10,  11,  53,  52
 11,  11,  12,  54,  53
 12,  12,  13,  55,  54
 13,  13,  14,  56,  55
 14,  14,  15,  57,  56
 15,  15,  16,  58,  57
 16,  16,  17,  59,  58
 17,  17,  18,  60,  59
 18,  18,  19,  61,  60
 19,  19,  20,  62,  61
 20,  20,  21,  63,  62
** ... 144 like lines cut
*Nset, nset=Set-1, generate
   1,  210,    1
*Elset, elset=Set-1, generate
   1,  164,    1
** Section: Section-1
*Solid Section, elset=Set-1, material=Material-1
,
*End Part
**
**
** ASSEMBLY
**
*Assembly, name=Assembly
**
*Instance, name=Part-1-1, part=Part-1
*End Instance
**
*Nset, nset=Left, instance=Part-1-1, generate
   1,  169,   42
*Elset, elset=Left, instance=Part-1-1, generate
   1,  124,   41
*Nset, nset=Right, instance=Part-1-1, generate
  42,  210,   42
*Elset, elset=Right, instance=Part-1-1, generate
  41,  164,   41
*End Assembly
**
** MATERIALS
**
*Material, name=Material-1
*Density
1.,
*Elastic
1.,0.
** ----------------------------------------------------------------
**
** STEP: Step-1
**
*Step, name=Step-1, nlgeom=YES
*Dynamic, Explicit
, 50.
*Bulk Viscosity
0.06, 1.2
**
** BOUNDARY CONDITIONS
**
** Name: BC-1 Type: Velocity/Angular velocity
*Boundary, type=VELOCITY
Left, 1, 1, -0.1
** Name: BC-2 Type: Velocity/Angular velocity
*Boundary, type=VELOCITY
Right, 1, 1, 0.1
**
** OUTPUT REQUESTS
**
*Restart, write, number interval=1, time marks=NO
**
** FIELD OUTPUT: F-Output-1
**
*Output, field, variable=PRESELECT
**
** HISTORY OUTPUT: H-Output-1
**
*Output, history, variable=PRESELECT, frequency=1
*End Step
