*Heading
** Job name: Mesh-fillet-notched-plate Model name: Model-1
** Generated by: Abaqus/CAE 2017
*Preprint, echo=NO, model=NO, history=NO, contact=NO
**
** PARTS
**
*Part, name=Plate-notched
*Node
      1, 0.0148936361, 0.0232168566
      2,  0.075000003, 0.0217702016
      3,  0.075000003,  0.100000001
      4,  -6.98249787e-05,  0.100000001
      5, 0.00209755683, 0.0398526192
      6, -0.00424325187, -0.0117517496
      7,  0.075000003, -0.0118538812
      8,           0., 0.00999999978
      9, -0.075000003, 0.0405126624
     10, -0.030597277, 0.0344848968
     11, -0.0140312715, 0.0303031523
     12, -0.075000003,  0.100000001
     13, -0.014303498, -0.100000001
     14,  0.075000003, -0.100000001
     15, -0.0341051519, -0.00517635001
     16, -0.075000003, 0.00499999989
     17, -0.0667660087, 0.00294150179
     18, -0.0612758398, 0.000342971383
     19, -0.0396282189, -0.100000001
     20, -0.0378766619, -0.0409156866
** ... 468 like lines cut
*Element, type=CPS4R
  1,  25,  26, 176, 175
  2,  26,   1,  27, 176
  3,  27,  28, 190, 176
  4,  28,  29, 191, 190
  5,  29,  30, 192, 191
  6,  30,  31, 193, 192
  7,  31,  32, 194, 193
  8,  32,  33, 195, 194
  9,  33,  34, 196, 195
 10,  34,   2,  35, 196
 11, 176, 190, 183, 175
 12, 190, 191, 182, 183
 13, 191, 192, 181, 182
 14, 192, 193, 180, 181
 15, 193, 194, 179, 180
 16, 194, 195, 178, 179
 17, 195, 196, 177, 178
 18, 196,  35,  36, 177
 19,  36,  37, 197, 177
 20,  37,  38, 198, 197
** ... 415 like lines cut
*Element, type=CPS3
436, 356, 366, 365
*Nset, nset=Set-1, generate
   1,  488,    1
*Elset, elset=Set-1, generate
   1,  436,    1
** Section: Section-1
*Solid Section, elset=Set-1, material=Test
,
*End Part
**  
**
** ASSEMBLY
**
*Assembly, name=Assembly
**  
*Instance, name=Plate-notched-1, part=Plate-notched
*End Instance
**  
*Nset, nset=Bottom, instance=Plate-notched-1
  13,  14,  19,  24, 108, 109, 110, 111, 112, 113, 114, 115, 116, 117, 146, 147
 172, 173, 174
*Elset, elset=Bottom, instance=Plate-notched-1
 295, 296, 297, 298, 299, 300, 301, 302, 303, 304, 305, 351, 352, 353, 408, 415
 422, 429
*Nset, nset=Top, instance=Plate-notched-1
  3,  4, 12, 43, 44, 45, 46, 47, 48, 49, 50, 90, 91, 92, 93, 94
 95, 96, 97
*Elset, elset=Top, instance=Plate-notched-1
  25,  32,  39,  46,  53,  60,  67,  74,  75, 142, 148, 149, 150, 151, 152, 153
 154, 155
*End Assembly
** 
** MATERIALS
** 
*Material, name=Test
*Density
1.,
*Elastic
1.,0.
** ----------------------------------------------------------------
** 
** STEP: Step-1
** 
*Step, name=Step-1, nlgeom=YES
*Dynamic, Explicit
, 4.
*Bulk Viscosity
0.06, 1.2
** 
** BOUNDARY CONDITIONS
** 
** Name: Velocity - bottom Type: Velocity/Angular velocity
*Boundary, type=VELOCITY
Bottom, 2, 2, -0.001
** Name: Velocity-top Type: Velocity/Angular velocity
*Boundary, type=VELOCITY
Top, 2, 2, 0.001
** 
** OUTPUT REQUESTS
** 
*Restart, write, number interval=1, time marks=NO
** 
** FIELD OUTPUT: F-Output-1
** 
*Output, field, variable=PRESELECT
** 
** HISTORY OUTPUT: H-Output-1
** 
*Output, history, variable=PRESELECT
*End Step
