*Heading
** Job name: Mesh-notch-one-opening Model name: Model-1
** Generated by: Abaqus/CAE 2017
*Preprint, echo=NO, model=NO, history=NO, contact=NO
**
** PARTS
**
*Part, name=Part-1
*Node
      1, 0.0199999996, 0.0444569997
      2,  0.075000003, 0.0444569997
      3,  0.075000003,  0.100000001
      4, 0.0199999996,  0.100000001
      5, 0.0199999996, 0.00445700018
      6,  0.075000003, 0.00445700018
      7, 0.0199999996, -0.100000001
      8,  0.075000003, -0.100000001
      9, -0.0199999996, 0.0444569997
     10, -0.0199999996,  0.100000001
     11, -0.075000003,  0.100000001
     12, -0.075000003, 0.0444569997
     13, -0.0199999996, -0.100000001
     14, -0.0199999996, 0.00445700018
     15, -0.075000003, 0.00445700018
     16, -0.075000003, -0.100000001
     17, 0.0103316261, 0.0141253741
     18, 0.0149999997, 0.0250000004
     19, 0.0108746262, 0.0353316255
     20, -0.0108746262, 0.0353316255
** ... 302 like lines cut
*Element, type=CPS4R
 1,   1,  22, 145,  39
 2,  22,  23, 146, 145
 3,  23,  24, 147, 146
 4,  24,  25, 148, 147
 5,  25,   2,  26, 148
 6,  39, 145, 149,  38
 7, 145, 146, 150, 149
 8, 146, 147, 151, 150
 9, 147, 148, 152, 151
10, 148,  26,  27, 152
11,  38, 149, 153,  37
12, 149, 150, 154, 153
13, 150, 151, 155, 154
14, 151, 152, 156, 155
15, 152,  27,  28, 156
16,  37, 153, 157,  36
17, 153, 154, 158, 157
18, 154, 155, 159, 158
19, 155, 156, 160, 159
20, 156,  28,  29, 160
** ... 260 like lines cut
*Nset, nset="Full domain", generate
   1,  322,    1
*Elset, elset="Full domain", generate
   1,  280,    1
** Section: Section-1
*Solid Section, elset="Full domain", material="Test mat"
,
*End Part
**  
**
** ASSEMBLY
**
*Assembly, name=Assembly
**  
*Instance, name=Part-1-1, part=Part-1
*End Instance
**  
*Nset, nset=Bottom, instance=Part-1-1
   7,   8,  13,  16,  59,  60,  61,  62, 112, 113, 114, 115, 122, 123, 124
*Elset, elset=Bottom, instance=Part-1-1
  96,  97,  98,  99, 100, 131, 141, 151, 161, 171, 214, 224, 234, 244
*Nset, nset=Top, instance=Part-1-1
   3,   4,  10,  11,  31,  32,  33,  34,  77,  78,  79,  80, 119, 120, 121
*Elset, elset=Top, instance=Part-1-1
  26,  27,  28,  29,  30, 106, 112, 118, 124, 130, 181, 187, 193, 199
*End Assembly
** 
** MATERIALS
** 
*Material, name="Test mat"
*Density
1.,
*Elastic
1.,0.
** ----------------------------------------------------------------
** 
** STEP: Step-1
** 
*Step, name=Step-1, nlgeom=YES
*Dynamic, Explicit
, 1.
*Bulk Viscosity
0.06, 1.2
** 
** BOUNDARY CONDITIONS
** 
** Name: Bottom velocity BC Type: Velocity/Angular velocity
*Boundary, type=VELOCITY
Bottom, 2, 2, -0.05
** Name: Top velocity BC Type: Velocity/Angular velocity
*Boundary, type=VELOCITY
Top, 2, 2, 0.05
** 
** OUTPUT REQUESTS
** 
*Restart, write, number interval=1, time marks=NO
** 
** FIELD OUTPUT: F-Output-1
** 
*Output, field, variable=PRESELECT
** 
** HISTORY OUTPUT: H-Output-1
** 
*Output, history, variable=PRESELECT
*End Step
